<?xml version="1.0" encoding="UTF-8"?>
<!DOCTYPE topic
  PUBLIC "-//OASIS//DTD DITA Topic//EN" "http://docs.oasis-open.org/dita/v1.1/OS/dtd/topic.dtd">
<topic id="preferences-editor-format-css">
  <title>CSS Preferences</title>
  <prolog>
    <metadata>
      <keywords><indexterm>Preferences<indexterm>CSS formatting</indexterm></indexterm></keywords>
    </metadata>
  </prolog>
  <body>
    <p><ph keyref="product"/> can format and indent your CSS files. To configure the
        <uicontrol>CSS</uicontrol> formatting options, <ph
        conkeyref="reusables-preferences-pages/open-the-preferences-page"/> and go to <menucascade>
        <uicontrol>Editor</uicontrol>
        <uicontrol>Format</uicontrol>
        <uicontrol>CSS</uicontrol>
      </menucascade>.</p>
    <p>The following options control how your CSS files are formatted and indented:<dl>
        <dlentry>
          <dt><uicontrol>Class body on new line</uicontrol></dt>
          <dd>If selected, the <i>class</i> body (including the curly brackets) is placed on a
            new line. This option is not selected by default.</dd>
        </dlentry>
        <dlentry>
          <dt><uicontrol>Indent class content</uicontrol></dt>
          <dd>When selected (default state), the <i>class</i> content is indented.</dd>
        </dlentry>
        <dlentry>
          <dt><uicontrol>Add space before the value of a CSS property</uicontrol></dt>
          <dd>When selected (default state), whitespaces are added between the <codeph>:</codeph>
            (colon) and the value of a style property.</dd>
        </dlentry>
        <dlentry>
          <dt><uicontrol>Add new line between classes</uicontrol></dt>
          <dd>If selected, an empty line is added between two classes. This option is not selected
            by default.</dd>
        </dlentry>
        <dlentry>
          <dt><uicontrol>Preserve empty lines</uicontrol></dt>
          <dd>When selected (default state), the empty lines from the CSS content are
            preserved.</dd>
        </dlentry>
        <dlentry>
          <dt><uicontrol>Allow formatting embedded CSS</uicontrol></dt>
          <dd>When selected (default state), CSS content that is embedded in XML is also formatted
            when the XML content is formatted.</dd>
        </dlentry>
      </dl></p>
  </body>
</topic>