<?xml version="1.0" encoding="UTF-8"?>
<!DOCTYPE topic
  PUBLIC "-//OASIS//DTD DITA Topic//EN" "http://docs.oasis-open.org/dita/v1.1/OS/dtd/topic.dtd">
<topic id="preferences-editor-format-css">
  <title>CSS Preferences</title>
  <prolog>
    <metadata>
      <keywords><indexterm>Preferences<indexterm>Editor<indexterm>Format<indexterm>CSS</indexterm></indexterm></indexterm></indexterm></keywords>
    </metadata>
  </prolog>
  <body>
    <p><ph keyref="product"/> can format and indent your CSS files. To configure the
        <uicontrol>CSS</uicontrol> formatting options, <ph
        conkeyref="reusables-preferences-pages/open-the-preferences-page"/> and go to <menucascade>
        <uicontrol>Editor</uicontrol>
        <uicontrol>Format</uicontrol>
        <uicontrol>CSS</uicontrol>
      </menucascade>.</p>
    <p>The following options control how your CSS files are formatted and indented:<dl>
        <dlentry>
          <dt><uicontrol>Class body on new line</uicontrol></dt>
          <dd>If enabled, the <term>class</term> body (including the curly brackets) is placed on a
            new line. Disabled by default.</dd>
        </dlentry>
        <dlentry>
          <dt><uicontrol>Indent class content</uicontrol></dt>
          <dd>When enabled, the <term>class</term> content is indented. Enabled by default.</dd>
        </dlentry>
        <dlentry>
          <dt><uicontrol>Add space before the value of a CSS property</uicontrol></dt>
          <dd>When enabled, whitespaces are added between the <codeph>:</codeph> (colon) and the
            value of a style property. Enabled by default.</dd>
        </dlentry>
        <dlentry>
          <dt><uicontrol>Add new line between classes</uicontrol></dt>
          <dd>If enabled, an empty line is added between two classes. Disabled by default.</dd>
        </dlentry>
        <dlentry>
          <dt><uicontrol>Preserve empty lines</uicontrol></dt>
          <dd>When enabled, the empty lines from the CSS content are preserved. Enabled by
            default.</dd>
        </dlentry>
        <dlentry>
          <dt><uicontrol>Allow formatting embedded CSS</uicontrol></dt>
          <dd>When enabled, CSS content that is embedded in XML is also formatted when the XML
            content is formatted. Enabled by default.</dd>
        </dlentry>
      </dl></p>
  </body>
</topic>